LTspice 24.1.7 for Windows
Circuit: C:\Bernardus Vico\Kuliah\sem 6\Elektronika Daya\UAS\UAS_Elday505923\Tugas9_BuckConverter.net
Start Time: Wed Jun 18 17:21:33 2025
solver = Normal
Maximum thread count: 12
tnom = 27
temp = 27
method = trap
Direct Newton iteration for .op point succeeded.
Total elapsed time: 0.156 seconds.

Files loaded:
C:\Bernardus Vico\Kuliah\sem 6\Elektronika Daya\UAS\UAS_Elday505923\Tugas9_BuckConverter.net
C:\Users\Administrator\AppData\Local\LTspice\lib\cmp\standard.dio

